      21 'GENROU' 1     9.6270      0.58000E-01   1.0060      0.60000E-01
          6.3000       0.0000       2.4700       2.4700      0.39250
         0.43700      0.28900      0.21100      0.84000E-01  0.23190    /
   61 'GENROU' 1     10.041      0.65000E-01   1.2200      0.94000E-01
          5.1120       0.0000       2.9100       2.7200      0.52700
         0.62300      0.36700      0.26500      0.50000E-01  0.27175    /
   71 'GENROU' 1     8.0940      0.80000E-01   1.5720      0.84000E-01
          5.4000       0.0000       2.2200       2.2200      0.38400
         0.39300      0.26400      0.20200      0.21500      0.76968    /
